113
 SCF done       -176.154558433845          0.000331717503
C          -2.26190362167063   -2.23274871515243   -0.34190733362876
C          -0.95456098689486   -2.37695454268952   -0.57691720259526
C          -0.37073732103448   -2.46433327240285   -1.96135470513670
H          -0.41194130784284   -1.47597800037112   -2.43138059888576
H          -0.94656125167399   -3.16068995746486   -2.57045179275739
H           0.66842644119588   -2.78880057328767   -1.90936385963964
C          -0.00016207531929   -2.26877165199453    0.57330072167658
C          -0.34829449712608   -0.97827553540687    1.33009459882379
H           0.01109943313599   -0.13551629263028    0.73731772561181
H           0.16838552404973   -0.97253756746775    2.28912996370670
C          -1.85893224394126   -0.81026345247231    1.59480485119117
O          -2.09770605966482   -0.84061168802268    2.99558018472920
H          -2.03950726056567    0.07099522638439    3.36452409511852
C          -2.68014178809399   -2.02945799558582    1.09658529964912
C          -4.14339828717231   -1.71909922541134    1.40976642056161
H          -4.53902595149693   -0.90072211338406    0.82675240558458
H          -4.77431961418713   -2.58813415687901    1.26043363052764
H          -4.19019507646917   -1.43792090898570    2.46226258158012
C          -2.34683567528364   -3.28067596105746    1.95168067406062
H          -1.67572538285061   -3.02192454833861    2.76826385272635
H          -1.89917575532925   -4.06245114628146    1.34367048942152
H          -3.26146448189256   -3.67917417958271    2.38598767343407
C          -2.34639164857028    0.54339223254471    1.03033796600632
H          -3.27100952991996    0.80886637194193    1.55042804108020
O          -1.33052949111167    1.50426572011390    1.31721122471823
C          -1.21509455620725    1.96613110661377    2.51874969847408
O          -1.83012681874458    1.60912524580610    3.51477294717956
C          -0.18987688088814    3.03605230210500    2.59442435919408
C           0.00832899175311    3.68661255088857    3.80877412661576
C           0.95178772078573    4.69095438229710    3.92052638513519
C           1.70851869740174    5.05200729469005    2.81560436023413
C           1.52118817478704    4.40770847828074    1.60213404758872
C           0.57697411413239    3.40243291944411    1.49201296630779
H           0.41662609581964    2.88831438660841    0.54950063706763
H           2.11642233730867    4.69179621902942    0.74084766415095
H           2.44874414910769    5.83992148313697    2.90165670972236
H           1.10175674438479    5.19672707064917    4.86853767337483
H          -0.59587295693050    3.38682557490628    4.66099948254686
C          -2.55222499871792    0.69918633986789   -0.50995521967761
H          -1.86309477217822    0.01093512761788   -0.99373502172831
C          -2.08019374633758    2.10823011355873   -0.90117488634351
C          -2.55661378655687    3.26627514291862   -0.02206071105077
H          -3.19251371639452    3.01066256127990    0.82354990805305
H          -1.74875954827032    3.92714542906296    0.29821804958285
O          -3.32361972050627    3.84411901817690   -1.10322352777608
C          -2.75910686767183    2.89339297511699   -2.03963336207423
C          -3.83260478912206    2.25828551705607   -2.88881858111899
H          -3.62835989651982    2.39632492680399   -3.95081655619850
H          -4.78201150041827    2.74811280449107   -2.66267413636231
C          -3.98725059124100    0.77149125041999   -2.61295786251850
O          -5.22509981286263    0.42167923619522   -3.19636532504308
H          -5.60338777092674   -0.33725080568793   -2.71029884853608
H          -3.15848920485993    0.23110800719778   -3.08988880419871
C          -3.94874381609669    0.40341749738402   -1.09781556022962
C          -4.31403062698241   -1.06845821849688   -1.23559306268395
O          -5.46730824921587   -1.37539731259632   -1.42291224832408
C          -3.16940688196012   -2.00025422378842   -1.52128596073916
H          -2.56008628127861   -1.42302325961245   -2.23078661873523
O          -3.46688123391754   -3.12710150334685   -2.32419591594549
C          -4.26703545212573   -4.09254410692390   -2.04267258972991
O          -4.43065439408332   -4.97092059095515   -2.87958001566486
C          -4.98071885619310   -4.18722479150635   -0.71113528278304
H          -5.58114498737944   -5.09138828914589   -0.69988734973086
H          -5.62533266122613   -3.32415413277582   -0.58051013330245
H          -4.25691939668289   -4.22982538680672    0.09481008712761
C          -5.07518604081354    1.16877387027910   -0.40455960793867
H          -5.06235208120400    0.99821995654290    0.67005764986687
H          -4.98900416807055    2.23898058193758   -0.58314514997154
H          -6.02531255586048    0.81099135338798   -0.80297212686910
H          -2.00590752974238    3.38307870871891   -2.66035432379169
O          -0.67428930774075    2.17371266689630   -1.05009019448311
C          -0.15210346921377    1.44852486559195   -1.98368047843702
O          -0.72846762068478    0.66557311000637   -2.71893747900941
C           1.33754218473599    1.69785449183155   -2.08076702178496
H           1.75105754926356    1.08172484345258   -2.87504989398818
H           1.81746747191693    1.43711436732152   -1.14097557303593
H           1.52896786986216    2.74708554797121   -2.28759822779882
H          -0.12217156539345   -3.10952089692694    1.25599950211545
O           1.33385430727247   -2.25262620282775    0.10259397091073
C           2.18583559863485   -2.69480834809498    0.96519647740345
O           1.97506781517084   -3.03852936023556    2.11881325370133
C           3.60531421670553   -2.77012815376632    0.44547071961222
O           4.40619994338439   -3.32196935889856    1.47019593752540
H           3.80441494412930   -3.45808597263640    2.22626881684654
H           3.66270434359231   -3.39955941294499   -0.44768416007918
C           4.12599705372900   -1.36164184366329    0.09280168923320
N           3.32960241513642   -0.86728091800343   -0.99832944071139
C           3.78057443409672   -0.54116647103130   -2.23059974248466
O           3.04215736615235   -0.49739181490405   -3.19842731717708
C           5.21422892212231   -0.18253147399184   -2.35444289723476
C           5.87582516895670    0.61411387446773   -1.42595677001613
C           7.19735276149193    0.97418571930306   -1.62854358196679
C           7.86924363190920    0.54369211104811   -2.76134630886935
C           7.21198661152069   -0.23268009942841   -3.70371179743003
C           5.88898892602259   -0.58240577531325   -3.50429602695658
H           5.35815759360643   -1.17972272118238   -4.23997551843760
H           7.73339483774093   -0.55828989847416   -4.59752172511528
H           8.90589087887168    0.82209042978918   -2.91596886003763
H           7.70659950948429    1.59609385235223   -0.90001452504522
H           5.34662073139270    0.96722785471406   -0.54804547099080
H           2.35372603597705   -1.13581656250778   -0.92805997792707
C           4.05164267592348   -0.49223807721407    1.31558083515360
C           3.00893439484731    0.39835201685449    1.52213310312531
C           2.93219960150823    1.13038964927044    2.69505538510186
C           3.89950617571995    0.97631191063620    3.67471628636534
C           4.94268142758468    0.08492562945832    3.47898204736814
C           5.01391626805056   -0.64590838002696    2.30553542679038
H           5.81600993424474   -1.35931646572247    2.14772196574119
H           5.70046843397824   -0.04140120095247    4.24465748987104
H           3.83916582620011    1.54999966309067    4.59276451640817
H           2.11144231507796    1.82037338403752    2.84748797399134
H           2.25083747473477    0.52037131490303    0.75600605502183
H           5.16226233179803   -1.44693032750892   -0.23098830761639

